# generated using pymatgen
data_ZnCu
_symmetry_space_group_name_H-M   'P 1'
_cell_length_a   4.67671388
_cell_length_b   2.74104666
_cell_length_c   4.02191871
_cell_angle_alpha   137.37823864
_cell_angle_beta   32.66807001
_cell_angle_gamma   125.16208471
_symmetry_Int_Tables_number   1
_chemical_formula_structural   ZnCu
_chemical_formula_sum   'Zn3 Cu3'
_cell_volume   18.71045199
_cell_formula_units_Z   3
loop_
 _symmetry_equiv_pos_site_id
 _symmetry_equiv_pos_as_xyz
  1  'x, y, z'
loop_
 _atom_site_type_symbol
 _atom_site_label
 _atom_site_symmetry_multiplicity
 _atom_site_fract_x
 _atom_site_fract_y
 _atom_site_fract_z
 _atom_site_occupancy
  Cu  Cu0  1  0.50000000  0.50000000  0.51416178  1
  Cu  Cu1  1  0.50000000  0.00000000  0.18082844  1
  Cu  Cu2  1  0.00000000  0.50000000  0.84749511  1
  Zn  Zn3  1  0.00000000  0.00000000  0.82268494  1
  Zn  Zn4  1  0.00000000  0.00000000  0.48935161  1
  Zn  Zn5  1  0.00000000  0.00000000  0.15601827  1
