# generated using pymatgen
data_Li8CuO
_symmetry_space_group_name_H-M   'P 1'
_cell_length_a   5.94624734
_cell_length_b   9.64467821
_cell_length_c   4.56808082
_cell_angle_alpha   74.91936465
_cell_angle_beta   54.65048024
_cell_angle_gamma   33.95927421
_symmetry_Int_Tables_number   1
_chemical_formula_structural   Li8CuO
_chemical_formula_sum   'Li8 Cu1 O1'
_cell_volume   104.56785794
_cell_formula_units_Z   1
loop_
 _symmetry_equiv_pos_site_id
 _symmetry_equiv_pos_as_xyz
  1  'x, y, z'
loop_
 _atom_site_type_symbol
 _atom_site_label
 _atom_site_symmetry_multiplicity
 _atom_site_fract_x
 _atom_site_fract_y
 _atom_site_fract_z
 _atom_site_occupancy
  Cu  Cu0  1  0.50000000  -0.00000000  0.50000000  1
  Li  Li1  1  0.50000000  0.50000000  0.50000000  1
  Li  Li2  1  0.00000000  0.50000000  0.50000000  1
  Li  Li3  1  0.53200180  0.36999889  0.96771819  1
  Li  Li4  1  -0.53200180  -0.36999889  -0.96771819  1
  Li  Li5  1  0.00000000  0.00000000  0.50000000  1
  Li  Li6  1  0.23926878  0.43989447  0.19829419  1
  Li  Li7  1  0.76073122  0.56010553  0.80170581  1
  Li  Li8  1  0.50000000  -0.00000000  -0.00000000  1
  O  O9  1  0.00000000  0.00000000  0.00000000  1
