# generated using pymatgen
data_Li8CuO
_symmetry_space_group_name_H-M   'P 1'
_cell_length_a   18.75351539
_cell_length_b   22.46507323
_cell_length_c   3.45492392
_cell_angle_alpha   115.92713702
_cell_angle_beta   30.35760730
_cell_angle_gamma   111.01908927
_symmetry_Int_Tables_number   1
_chemical_formula_structural   Li8CuO
_chemical_formula_sum   'Li24 Cu3 O3'
_cell_volume   661.03667686
_cell_formula_units_Z   3
loop_
 _symmetry_equiv_pos_site_id
 _symmetry_equiv_pos_as_xyz
  1  'x, y, z'
loop_
 _atom_site_type_symbol
 _atom_site_label
 _atom_site_symmetry_multiplicity
 _atom_site_fract_x
 _atom_site_fract_y
 _atom_site_fract_z
 _atom_site_occupancy
  Cu  Cu0  1  0.03391162  0.12231085  0.09377846  1
  Cu  Cu1  1  0.87768915  0.91160077  0.42711180  1
  Cu  Cu2  1  0.08839923  0.96608838  0.76044513  1
  Li  Li3  1  0.55190001  0.05423722  0.19808204  1
  Li  Li4  1  -0.05423722  0.49766279  0.53141538  1
  Li  Li5  1  -0.49766279  -0.55190001  0.86474871  1
  Li  Li6  1  0.11685243  0.43543063  0.24932056  1
  Li  Li7  1  0.56456937  0.68142179  0.58265389  1
  Li  Li8  1  0.31857821  0.88314757  0.91598723  1
  Li  Li9  1  0.35904503  0.14337320  0.39565876  1
  Li  Li10  1  0.85662680  0.21567183  0.72899209  1
  Li  Li11  1  0.78432817  0.64095497  0.06232542  1
  O  O12  1  0.05950642  0.84082566  0.48340209  1
  Li  Li13  1  0.15917434  0.21868076  0.81673543  1
  Li  Li14  1  0.78131924  0.94049358  0.15006876  1
  Li  Li15  1  0.45715347  0.62184344  0.39090734  1
  Li  Li16  1  0.37815656  0.83531002  0.72424067  1
  Li  Li17  1  0.16468998  0.54284653  0.05757400  1
  Li  Li18  1  0.10636031  0.31794134  0.34196976  1
  Li  Li19  1  0.68205866  0.78841897  0.67530310  1
  Li  Li20  1  0.21158103  0.89363969  0.00863643  1
  Li  Li21  1  0.42672300  0.76133989  0.16810997  1
  Li  Li22  1  0.23866011  0.66538311  0.50144330  1
  Li  Li23  1  0.33461689  0.57327700  0.83477664  1
  Li  Li24  1  0.70082273  0.02186221  0.79781890  1
  Li  Li25  1  0.97813779  0.67896051  0.13115223  1
  Li  Li26  1  0.32103949  0.29917727  0.46448557  1
  O  O27  1  0.49926927  0.26827003  0.44952263  1
  Li  Li28  1  0.73172997  0.23099924  0.78285596  1
  O  O29  1  0.76900076  0.50073073  0.11618929  1
